data_fcu
_audit_creation_date              2025-02-16
_audit_creation_method            'MOF_builder'
_symmetry_space_group_name_H-M    'P1'
_symmetry_Int_Tables_number       1
loop_
_symmetry_equiv_pos_as_xyz
  x,y,z
_cell_length_a                    50.0
_cell_length_b                    50.0
_cell_length_c                    50.0
_cell_angle_alpha                 90.0
_cell_angle_beta                  90.0
_cell_angle_gamma                 90.0
loop_
_atom_site_label
_atom_site_type_symbol
_atom_site_fract_x
_atom_site_fract_y
_atom_site_fract_z
EC1    EC    0.00  0.50  0.50
V2     V     0.00  0.00  0.00 
EC3    EC    0.50  0.00  0.50
EC4    EC    0.50  0.50  0.00
E1     E     0.25  0.25  0.00
E2     E     0.75  0.25  0.00
E3     E     0.75  0.75  0.00
E4     E     0.25  0.75  0.00
E5     E     0.25  0.00  0.25
E6     E     0.75  0.00  0.25
E7     E     0.75  0.00  0.75
E8     E     0.25  0.00  0.75
E9     E     0.00  0.25  0.25
E10    E     0.00  0.25  0.75
E11    E     0.00  0.75  0.75
E12    E     0.00  0.75  0.25
loop_
_geom_bond_atom_site_label_1
_geom_bond_atom_site_label_2
_geom_bond_distance
_geom_bond_site_symmetry_2
